Version 4.1
SHEET 1 880 680
WIRE 272 -64 224 -64
WIRE 400 -64 352 -64
WIRE 80 48 64 48
WIRE 224 48 224 -64
WIRE 224 48 160 48
WIRE 256 48 224 48
WIRE 400 64 400 -64
WIRE 400 64 320 64
WIRE 464 64 400 64
WIRE 256 80 224 80
WIRE 224 192 224 80
WIRE 288 192 224 192
WIRE 400 192 400 64
WIRE 400 192 368 192
WIRE -416 240 -416 208
WIRE -272 240 -272 160
WIRE 224 240 224 192
WIRE 224 336 224 304
WIRE 224 432 224 400
FLAG 224 432 0
FLAG 288 96 0
FLAG -416 320 0
FLAG -272 320 0
FLAG 464 64 Vout
IOPIN 464 64 Out
FLAG 64 48 Vin
IOPIN 64 48 In
FLAG -272 160 Vin
IOPIN -272 160 Out
FLAG -416 208 V28
IOPIN -416 208 Out
FLAG 288 32 V28
SYMBOL voltage -416 224 R0
WINDOW 123 0 0 Left 0
WINDOW 39 0 0 Left 0
SYMATTR InstName V1
SYMATTR Value 28V
SYMBOL voltage -272 224 R0
WINDOW 123 0 0 Left 0
WINDOW 39 0 0 Left 0
SYMATTR InstName V2
SYMATTR Value 0
SYMBOL res 176 32 R90
WINDOW 0 0 56 VBottom 2
WINDOW 3 32 56 VTop 2
SYMATTR InstName R1
SYMATTR Value 10k
SYMBOL res 368 -80 R90
WINDOW 0 0 56 VBottom 2
WINDOW 3 32 56 VTop 2
SYMATTR InstName R2
SYMATTR Value 10k
SYMBOL OpAmps\\OP07 288 0 R0
SYMATTR InstName U1
SYMBOL res 384 176 R90
WINDOW 0 0 56 VBottom 2
WINDOW 3 32 56 VTop 2
SYMATTR InstName R3
SYMATTR Value 100k
SYMBOL Contrib\\Toshiba\\diode\\TBAT54 208 240 R0
SYMATTR InstName U2
SYMBOL Contrib\\Toshiba\\diode\\TBAT54 208 336 R0
SYMATTR InstName U3
TEXT -448 -104 Left 2 !.dc V2 -10 10 0.5
RECTANGLE Normal -80 64 -464 -160 2
RECTANGLE Normal -80 448 -528 80 2
RECTANGLE Normal -64 512 608 -160 2
